data_MgMOF-74-VASP
_audit_creation_date              2023-01-09
_audit_creation_method            'Materials Studio'
_symmetry_space_group_name_H-M    'R-3'
_symmetry_Int_Tables_number       148
_symmetry_cell_setting            trigonal
loop_
_symmetry_equiv_pos_as_xyz
  x,y,z
  -y,x-y,z
  -x+y,-x,z
  -x,-y,-z
  y,-x+y,-z
  x-y,x,-z
  x+2/3,y+1/3,z+1/3
  -y+2/3,x-y+1/3,z+1/3
  -x+y+2/3,-x+1/3,z+1/3
  -x+2/3,-y+1/3,-z+1/3
  y+2/3,-x+y+1/3,-z+1/3
  x-y+2/3,x+1/3,-z+1/3
  x+1/3,y+2/3,z+2/3
  -y+1/3,x-y+2/3,z+2/3
  -x+y+1/3,-x+2/3,z+2/3
  -x+1/3,-y+2/3,-z+2/3
  y+1/3,-x+y+2/3,-z+2/3
  x-y+1/3,x+2/3,-z+2/3
_cell_length_a                    26.1360
_cell_length_b                    26.1360
_cell_length_c                    6.9420
_cell_angle_alpha                 90.0000
_cell_angle_beta                  90.0000
_cell_angle_gamma                 120.0000
loop_
_atom_site_label
_atom_site_type_symbol
_atom_site_fract_x
_atom_site_fract_y
_atom_site_fract_z
_atom_site_U_iso_or_equiv
_atom_site_adp_type
_atom_site_occupancy
Mg1    Mg    0.63990   0.68573   0.46836   0.00000  Uiso   1.00
O1     O     0.96721   0.29743   0.36040   0.00000  Uiso   1.00
O2     O     0.92780   0.23034   0.59466   0.00000  Uiso   1.00
O3     O     0.25334   0.93973   0.67281   0.00000  Uiso   1.00
C1     C     0.92683   0.24635   0.42241   0.00000  Uiso   1.00
C2     C     0.87927   0.20718   0.28663   0.00000  Uiso   1.00
C3     C     0.21197   0.88869   0.75473   0.00000  Uiso   1.00
C4     C     0.16537   0.84702   0.64147   0.00000  Uiso   1.00
H1     H     0.16364   0.85728   0.49031   0.00000  Uiso   1.00
