data_MOF-808_mod
_audit_creation_date              2023-01-09
_audit_creation_method            'Materials Studio'
_symmetry_space_group_name_H-M    'FD-3M'
_symmetry_Int_Tables_number       227
_symmetry_cell_setting            cubic
loop_
_symmetry_equiv_pos_as_xyz
  x,y,z
  -x+3/4,-y+1/4,z+1/2
  -x+1/4,y+1/2,-z+3/4
  x+1/2,-y+3/4,-z+1/4
  z,x,y
  z+1/2,-x+3/4,-y+1/4
  -z+3/4,-x+1/4,y+1/2
  -z+1/4,x+1/2,-y+3/4
  y,z,x
  -y+1/4,z+1/2,-x+3/4
  y+1/2,-z+3/4,-x+1/4
  -y+3/4,-z+1/4,x+1/2
  y+3/4,x+1/4,-z+1/2
  -y,-x,-z
  y+1/4,-x+1/2,z+3/4
  -y+1/2,x+3/4,z+1/4
  x+3/4,z+1/4,-y+1/2
  -x+1/2,z+3/4,y+1/4
  -x,-z,-y
  x+1/4,-z+1/2,y+3/4
  z+3/4,y+1/4,-x+1/2
  z+1/4,-y+1/2,x+3/4
  -z+1/2,y+3/4,x+1/4
  -z,-y,-x
  -x,-y,-z
  x+1/4,y+3/4,-z+1/2
  x+3/4,-y+1/2,z+1/4
  -x+1/2,y+1/4,z+3/4
  -z,-x,-y
  -z+1/2,x+1/4,y+3/4
  z+1/4,x+3/4,-y+1/2
  z+3/4,-x+1/2,y+1/4
  -y,-z,-x
  y+3/4,-z+1/2,x+1/4
  -y+1/2,z+1/4,x+3/4
  y+1/4,z+3/4,-x+1/2
  -y+1/4,-x+3/4,z+1/2
  y,x,z
  -y+3/4,x+1/2,-z+1/4
  y+1/2,-x+1/4,-z+3/4
  -x+1/4,-z+3/4,y+1/2
  x+1/2,-z+1/4,-y+3/4
  x,z,y
  -x+3/4,z+1/2,-y+1/4
  -z+1/4,-y+3/4,x+1/2
  -z+3/4,y+1/2,-x+1/4
  z+1/2,-y+1/4,-x+3/4
  z,y,x
  x,y+1/2,z+1/2
  -x+3/4,-y+3/4,z
  -x+1/4,y,-z+1/4
  x+1/2,-y+1/4,-z+3/4
  z,x+1/2,y+1/2
  z+1/2,-x+1/4,-y+3/4
  -z+3/4,-x+3/4,y
  -z+1/4,x,-y+1/4
  y,z+1/2,x+1/2
  -y+1/4,z,-x+1/4
  y+1/2,-z+1/4,-x+3/4
  -y+3/4,-z+3/4,x
  y+3/4,x+3/4,-z
  -y,-x+1/2,-z+1/2
  y+1/4,-x,z+1/4
  -y+1/2,x+1/4,z+3/4
  x+3/4,z+3/4,-y
  -x+1/2,z+1/4,y+3/4
  -x,-z+1/2,-y+1/2
  x+1/4,-z,y+1/4
  z+3/4,y+3/4,-x
  z+1/4,-y,x+1/4
  -z+1/2,y+1/4,x+3/4
  -z,-y+1/2,-x+1/2
  -x,-y+1/2,-z+1/2
  x+1/4,y+1/4,-z
  x+3/4,-y,z+3/4
  -x+1/2,y+3/4,z+1/4
  -z,-x+1/2,-y+1/2
  -z+1/2,x+3/4,y+1/4
  z+1/4,x+1/4,-y
  z+3/4,-x,y+3/4
  -y,-z+1/2,-x+1/2
  y+3/4,-z,x+3/4
  -y+1/2,z+3/4,x+1/4
  y+1/4,z+1/4,-x
  -y+1/4,-x+1/4,z
  y,x+1/2,z+1/2
  -y+3/4,x,-z+3/4
  y+1/2,-x+3/4,-z+1/4
  -x+1/4,-z+1/4,y
  x+1/2,-z+3/4,-y+1/4
  x,z+1/2,y+1/2
  -x+3/4,z,-y+3/4
  -z+1/4,-y+1/4,x
  -z+3/4,y,-x+3/4
  z+1/2,-y+3/4,-x+1/4
  z,y+1/2,x+1/2
  x+1/2,y,z+1/2
  -x+1/4,-y+1/4,z
  -x+3/4,y+1/2,-z+1/4
  x,-y+3/4,-z+3/4
  z+1/2,x,y+1/2
  z,-x+3/4,-y+3/4
  -z+1/4,-x+1/4,y
  -z+3/4,x+1/2,-y+1/4
  y+1/2,z,x+1/2
  -y+3/4,z+1/2,-x+1/4
  y,-z+3/4,-x+3/4
  -y+1/4,-z+1/4,x
  y+1/4,x+1/4,-z
  -y+1/2,-x,-z+1/2
  y+3/4,-x+1/2,z+1/4
  -y,x+3/4,z+3/4
  x+1/4,z+1/4,-y
  -x,z+3/4,y+3/4
  -x+1/2,-z,-y+1/2
  x+3/4,-z+1/2,y+1/4
  z+1/4,y+1/4,-x
  z+3/4,-y+1/2,x+1/4
  -z,y+3/4,x+3/4
  -z+1/2,-y,-x+1/2
  -x+1/2,-y,-z+1/2
  x+3/4,y+3/4,-z
  x+1/4,-y+1/2,z+3/4
  -x,y+1/4,z+1/4
  -z+1/2,-x,-y+1/2
  -z,x+1/4,y+1/4
  z+3/4,x+3/4,-y
  z+1/4,-x+1/2,y+3/4
  -y+1/2,-z,-x+1/2
  y+1/4,-z+1/2,x+3/4
  -y,z+1/4,x+1/4
  y+3/4,z+3/4,-x
  -y+3/4,-x+3/4,z
  y+1/2,x,z+1/2
  -y+1/4,x+1/2,-z+3/4
  y,-x+1/4,-z+1/4
  -x+3/4,-z+3/4,y
  x,-z+1/4,-y+1/4
  x+1/2,z,y+1/2
  -x+1/4,z+1/2,-y+3/4
  -z+3/4,-y+3/4,x
  -z+1/4,y+1/2,-x+3/4
  z,-y+1/4,-x+1/4
  z+1/2,y,x+1/2
  x+1/2,y+1/2,z
  -x+1/4,-y+3/4,z+1/2
  -x+3/4,y,-z+3/4
  x,-y+1/4,-z+1/4
  z+1/2,x+1/2,y
  z,-x+1/4,-y+1/4
  -z+1/4,-x+3/4,y+1/2
  -z+3/4,x,-y+3/4
  y+1/2,z+1/2,x
  -y+3/4,z,-x+3/4
  y,-z+1/4,-x+1/4
  -y+1/4,-z+3/4,x+1/2
  y+1/4,x+3/4,-z+1/2
  -y+1/2,-x+1/2,-z
  y+3/4,-x,z+3/4
  -y,x+1/4,z+1/4
  x+1/4,z+3/4,-y+1/2
  -x,z+1/4,y+1/4
  -x+1/2,-z+1/2,-y
  x+3/4,-z,y+3/4
  z+1/4,y+3/4,-x+1/2
  z+3/4,-y,x+3/4
  -z,y+1/4,x+1/4
  -z+1/2,-y+1/2,-x
  -x+1/2,-y+1/2,-z
  x+3/4,y+1/4,-z+1/2
  x+1/4,-y,z+1/4
  -x,y+3/4,z+3/4
  -z+1/2,-x+1/2,-y
  -z,x+3/4,y+3/4
  z+3/4,x+1/4,-y+1/2
  z+1/4,-x,y+1/4
  -y+1/2,-z+1/2,-x
  y+1/4,-z,x+1/4
  -y,z+3/4,x+3/4
  y+3/4,z+1/4,-x+1/2
  -y+3/4,-x+1/4,z+1/2
  y+1/2,x+1/2,z
  -y+1/4,x,-z+1/4
  y,-x+3/4,-z+3/4
  -x+3/4,-z+1/4,y+1/2
  x,-z+3/4,-y+3/4
  x+1/2,z+1/2,y
  -x+1/4,z,-y+1/4
  -z+3/4,-y+1/4,x+1/2
  -z+1/4,y,-x+1/4
  z,-y+3/4,-x+3/4
  z+1/2,y+1/2,x
_cell_length_a                    35.0764
_cell_length_b                    35.0764
_cell_length_c                    35.0764
_cell_angle_alpha                 90.0000
_cell_angle_beta                  90.0000
_cell_angle_gamma                 90.0000
loop_
_atom_site_label
_atom_site_type_symbol
_atom_site_fract_x
_atom_site_fract_y
_atom_site_fract_z
_atom_site_U_iso_or_equiv
_atom_site_adp_type
_atom_site_occupancy
O1     O     0.80014   0.25428   0.39988   0.02617  Uani   1.00
O6     O     0.79187   0.18638   0.41237   0.06600  Uani   0.50
Zr1    Zr    0.79560   0.22911   0.45440   0.01967  Uani   1.00
O3     O     0.76220   0.19150   0.48780   0.02253  Uani   0.50
O2     O     0.78657   0.28657   0.46343   0.02020  Uani   0.50
C1     C     0.78244   0.28244   0.38418   0.02373  Uani   1.00
C2     C     0.79683   0.29683   0.34651   0.02367  Uani   1.00
C3     C     0.78061   0.32956   0.32956   0.02513  Uani   1.00
H3     H     0.75621   0.34292   0.34292   0.03000  Uiso   1.00
loop_
_atom_site_aniso_label
_atom_site_aniso_U_11
_atom_site_aniso_U_22
_atom_site_aniso_U_33
_atom_site_aniso_U_12
_atom_site_aniso_U_13
_atom_site_aniso_U_23
O1        0.02640   0.02630   0.02580   0.00430   0.00530   0.00650
O6        0.13500   0.02700   0.03600   0.00000   0.03400  -0.00020
Zr1       0.01938   0.02026   0.01938  -0.00095   0.00245   0.00095
O3        0.02430   0.01900   0.02430  -0.00270   0.00300   0.00270
O2        0.02020   0.02020   0.02020  -0.00530   0.00530   0.00530
C1        0.02270   0.02270   0.02580  -0.00220   0.00360   0.00360
C2        0.02330   0.02330   0.02440   0.00030   0.00500   0.00500
C3        0.02380   0.02580   0.02580   0.00390   0.00390   0.00480
loop_
_geom_bond_atom_site_label_1
_geom_bond_atom_site_label_2
_geom_bond_distance
_geom_bond_site_symmetry_2
_ccdc_geom_bond_type
O1     Zr1     2.112   .     S
O1     C1      1.290   .     A
O6     Zr1     2.107   .     S
Zr1    O1      2.112   190_656 S
Zr1    O6      2.107   190_656 S
Zr1    O2      2.065   .     S
Zr1    O3      2.118   .     S
Zr1    O3      2.100   14_666 S
Zr1    O3      2.100   18_645 S
O3     Zr1     2.100   14_666 S
O3     Zr1     2.100   18_645 S
O2     Zr1     2.065   8_645 S
O2     Zr1     2.065   11_556 S
C1     O1      1.290   182_545 A
C1     C2      1.502   .     S
C2     C3      1.412   .     A
C2     C3      1.412   149_545 A
C3     C2      1.412   43    A
C3     H3      1.083   .     S
