data_NU-1000
_audit_creation_date              2023-01-09
_audit_creation_method            'Materials Studio'
_symmetry_space_group_name_H-M    'P6/MMM'
_symmetry_Int_Tables_number       191
_symmetry_cell_setting            hexagonal
loop_
_symmetry_equiv_pos_as_xyz
  x,y,z
  -y,x-y,z
  -x+y,-x,z
  -x,-y,z
  y,-x+y,z
  x-y,x,z
  y,x,-z
  x-y,-y,-z
  -x,-x+y,-z
  -y,-x,-z
  -x+y,y,-z
  x,x-y,-z
  -x,-y,-z
  y,-x+y,-z
  x-y,x,-z
  x,y,-z
  -y,x-y,-z
  -x+y,-x,-z
  -y,-x,z
  -x+y,y,z
  x,x-y,z
  y,x,z
  x-y,-y,z
  -x,-x+y,z
_cell_length_a                    39.3875
_cell_length_b                    39.3875
_cell_length_c                    16.4829
_cell_angle_alpha                 90.0000
_cell_angle_beta                  90.0000
_cell_angle_gamma                 120.0000
loop_
_atom_site_label
_atom_site_type_symbol
_atom_site_fract_x
_atom_site_fract_y
_atom_site_fract_z
_atom_site_U_iso_or_equiv
_atom_site_adp_type
_atom_site_occupancy
O1     O     0.46598   0.40823  -0.15150   0.04389  Uani   1.00
O2     O     0.51744   0.41297  -0.08410   0.03422  Uani   1.00
O5     O     0.50090   0.45770  -0.10840   0.00210  Uiso   0.25
C1     C     0.49130   0.39850  -0.13370   0.03467  Uani   1.00
C2     C     0.49030   0.36640  -0.18210   0.04256  Uani   1.00
C3     C     0.45920   0.34560  -0.23980   0.05156  Uani   1.00
H3     H     0.43840   0.35120  -0.24460   0.06200  Uiso   1.00
C4     C     0.46000   0.31690  -0.28880   0.06500  Uani   1.00
H4     H     0.44080   0.30440  -0.33000   0.07800  Uiso   1.00
C5     C     0.48820   0.30650  -0.27790   0.05544  Uani   1.00
C6     C     0.51690   0.32560  -0.22000   0.06378  Uani   1.00
H6     H     0.53650   0.31860  -0.21210   0.07700  Uiso   1.00
C7     C     0.51680   0.35460  -0.17410   0.06411  Uani   1.00
H7     H     0.53670   0.36710  -0.13410   0.07700  Uiso   1.00
C8     C     0.48890   0.27520  -0.32690   0.06378  Uani   1.00
C9     C     0.48990   0.27650  -0.41450   0.07100  Uani   1.00
C12    C     0.49040   0.30720  -0.46130   0.07700  Uani   1.00
H12    H     0.49080   0.32850  -0.43370   0.09300  Uiso   1.00
Zr1    Zr    0.45526   0.45526  -0.10665   0.02658  Uani   1.00
O3     O     0.46680   0.46680  -0.24060   0.07267  Uani   1.00
O4     O     0.40011   0.40011  -0.07720   0.06111  Uani   1.00
Zr2    Zr    0.53598   0.46402   0.00000   0.02007  Uani   1.00
O5A    O     0.51752   0.48248  -0.10480   0.00210  Uiso   0.50
O6     O     0.43140   0.46799   0.00000   0.00560  Uiso   1.00
C10    C     0.48700   0.24350  -0.45680   0.06756  Uani   1.00
C11    C     0.48850   0.24425  -0.28810   0.08333  Uani   1.00
H11    H     0.48780   0.24390  -0.23040   0.10000  Uiso   1.00
loop_
_atom_site_aniso_label
_atom_site_aniso_U_11
_atom_site_aniso_U_22
_atom_site_aniso_U_33
_atom_site_aniso_U_12
_atom_site_aniso_U_13
_atom_site_aniso_U_23
O1        0.07000   0.05100   0.03300   0.04700  -0.01800  -0.02300
O2        0.05900   0.03400   0.02800   0.03700   0.00100   0.00130
C1        0.06100   0.03400   0.02800   0.03800  -0.00200  -0.01400
C2        0.08600   0.04800   0.02500   0.05700  -0.00700  -0.01200
C3        0.08500   0.04600   0.03600   0.04200  -0.01900  -0.02500
C4        0.12200   0.05600   0.03500   0.05800  -0.01400  -0.01600
C5        0.12600   0.05300   0.01300   0.06400  -0.00200  -0.00400
C6        0.13900   0.06600   0.03400   0.08700  -0.01700  -0.01300
C7        0.11200   0.07000   0.05100   0.07600  -0.02200  -0.02500
C8        0.14900   0.05400   0.01800   0.07300  -0.00300  -0.00500
C9        0.18100   0.05800   0.01700   0.09200  -0.00600  -0.00700
C12       0.19000   0.05100   0.02700   0.08800  -0.00800  -0.00700
Zr1       0.03510   0.03510   0.02360   0.02810  -0.00760  -0.00760
O3        0.13200   0.13200   0.02200   0.11700  -0.00900  -0.00900
O4        0.03100   0.03100   0.11000   0.00700  -0.01000  -0.01000
Zr2       0.02830   0.02830   0.01660   0.02390   0.00000   0.00000
C10       0.17200   0.05100   0.02000   0.08600  -0.00300  -0.00150
C11       0.20800   0.07300   0.01400   0.10400   0.00800   0.00400
loop_
_geom_bond_atom_site_label_1
_geom_bond_atom_site_label_2
_geom_bond_distance
_geom_bond_site_symmetry_2
_ccdc_geom_bond_type
O1     Zr1     2.222   .     S
O1     C1      1.269   .     S
O2     Zr2     2.243   .     S
O2     C1      1.211   .     S
O5     Zr1     1.752   .     S
O5     Zr2     2.195   .     S
C1     C2      1.479   .     S
C2     C3      1.440   .     S
C2     C7      1.345   .     S
C3     H3      0.952   .     S
C3     C4      1.402   .     S
C4     H4      0.950   .     S
C4     C5      1.374   .     S
C5     C6      1.380   .     S
C5     C8      1.486   .     S
C6     H6      0.950   .     S
C6     C7      1.372   .     S
C7     H7      0.952   .     S
C8     C9      1.445   .     S
C8     C11     1.370   .     S
C9     C10     1.428   .     S
C9     C12     1.426   .     S
C12    H12     0.948   .     S
C12    C12     1.276   16_554 S
Zr1    Zr2     3.496   .     S
Zr1    Zr2     3.496   4_665 S
Zr1    O1      2.222   22    S
Zr1    O3      2.254   .     S
Zr1    O4      2.226   .     S
Zr1    O5      1.752   22    S
Zr1    O5A     2.130   .     S
Zr1    O5A     2.130   4_665 S
Zr1    O6      2.167   .     S
Zr1    O6      2.167   7     S
Zr2    Zr1     3.496   10_665 S
Zr2    Zr1     3.496   7     S
Zr2    Zr1     3.496   4_665 S
Zr2    O2      2.243   10_665 S
Zr2    O2      2.243   16    S
Zr2    O2      2.243   19_665 S
Zr2    O5      2.195   10_665 S
Zr2    O5      2.195   16    S
Zr2    O5      2.195   19_665 S
Zr2    O5A     2.138   .     S
Zr2    O5A     2.138   10_665 S
Zr2    O6      2.320   4_665 S
Zr2    O6      2.320   7     S
O5A    Zr1     2.130   4_665 S
O6     Zr1     2.167   7     S
O6     Zr2     2.320   4_665 S
C10    C9      1.428   21    S
C10    C10     1.424   12_554 S
C11    C8      1.370   21    S
C11    H11     0.951   .     S
