data_SIFSIX-3-Ni
_audit_creation_date              2023-01-09
_audit_creation_method            'Materials Studio'
_symmetry_space_group_name_H-M    'P1'
_symmetry_Int_Tables_number       1
_symmetry_cell_setting            triclinic
loop_
_symmetry_equiv_pos_as_xyz
  x,y,z
_cell_length_a                    14.0544
_cell_length_b                    14.0544
_cell_length_c                    15.1796
_cell_angle_alpha                 90.0000
_cell_angle_beta                  90.0000
_cell_angle_gamma                 90.0000
loop_
_atom_site_label
_atom_site_type_symbol
_atom_site_fract_x
_atom_site_fract_y
_atom_site_fract_z
_atom_site_U_iso_or_equiv
_atom_site_adp_type
_atom_site_occupancy
N1     N     0.25000   0.10090   0.25000   0.05699  Uiso   1.00
N2     N     0.25000   0.39910   0.25000   0.05699  Uiso   1.00
N3     N     0.39910   0.25000   0.25000   0.05699  Uiso   1.00
N4     N     0.10090   0.25000   0.25000   0.05699  Uiso   1.00
C5     C     0.25000   0.04970   0.17420   0.05699  Uiso   1.00
H6     H     0.25000   0.08750   0.11200   0.08612  Uiso   1.00
C7     C     0.25000   0.45030   0.17420   0.05699  Uiso   1.00
H8     H     0.25000   0.41250   0.11200   0.08612  Uiso   1.00
C9     C     0.45030   0.25000   0.17420   0.05699  Uiso   1.00
H10    H     0.41250   0.25000   0.11200   0.08612  Uiso   1.00
C11    C     0.04970   0.25000   0.17420   0.05699  Uiso   1.00
H12    H     0.08750   0.25000   0.11200   0.08612  Uiso   1.00
C13    C     0.25000   0.04970   0.32580   0.05699  Uiso   1.00
H14    H     0.25000   0.08750   0.38800   0.08612  Uiso   1.00
C15    C     0.25000   0.45030   0.32580   0.05699  Uiso   1.00
H16    H     0.25000   0.41250   0.38800   0.08612  Uiso   1.00
C17    C     0.04970   0.25000   0.32580   0.05699  Uiso   1.00
H18    H     0.08750   0.25000   0.38800   0.08612  Uiso   1.00
C19    C     0.45030   0.25000   0.32580   0.05699  Uiso   1.00
H20    H     0.41250   0.25000   0.38800   0.08612  Uiso   1.00
Ni21   Ni    0.25000   0.25000   0.25000   0.03800  Uiso   1.00
F22    F     0.25000   0.25000   0.11265   0.04433  Uiso   1.00
F23    F     0.25000   0.25000   0.38735   0.04433  Uiso   1.00
F24    F     0.16425   0.16425   0.00000   0.04433  Uiso   1.00
F25    F     0.33575   0.33575   0.00000   0.04433  Uiso   1.00
F26    F     0.33575   0.16425   0.00000   0.04433  Uiso   1.00
F27    F     0.16425   0.33575   0.00000   0.04433  Uiso   1.00
Si28   Si    0.25000   0.25000   0.00000   0.03166  Uiso   1.00
N29    N     0.75000   0.10090   0.25000   0.05699  Uiso   1.00
N30    N     0.75000   0.39910   0.25000   0.05699  Uiso   1.00
N31    N     0.89910   0.25000   0.25000   0.05699  Uiso   1.00
N32    N     0.60090   0.25000   0.25000   0.05699  Uiso   1.00
C33    C     0.75000   0.04970   0.17420   0.05699  Uiso   1.00
H34    H     0.75000   0.08750   0.11200   0.08612  Uiso   1.00
C35    C     0.75000   0.45030   0.17420   0.05699  Uiso   1.00
H36    H     0.75000   0.41250   0.11200   0.08612  Uiso   1.00
C37    C     0.95030   0.25000   0.17420   0.05699  Uiso   1.00
H38    H     0.91250   0.25000   0.11200   0.08612  Uiso   1.00
C39    C     0.54970   0.25000   0.17420   0.05699  Uiso   1.00
H40    H     0.58750   0.25000   0.11200   0.08612  Uiso   1.00
C41    C     0.75000   0.04970   0.32580   0.05699  Uiso   1.00
H42    H     0.75000   0.08750   0.38800   0.08612  Uiso   1.00
C43    C     0.75000   0.45030   0.32580   0.05699  Uiso   1.00
H44    H     0.75000   0.41250   0.38800   0.08612  Uiso   1.00
C45    C     0.54970   0.25000   0.32580   0.05699  Uiso   1.00
H46    H     0.58750   0.25000   0.38800   0.08612  Uiso   1.00
C47    C     0.95030   0.25000   0.32580   0.05699  Uiso   1.00
H48    H     0.91250   0.25000   0.38800   0.08612  Uiso   1.00
Ni49   Ni    0.75000   0.25000   0.25000   0.03800  Uiso   1.00
F50    F     0.75000   0.25000   0.11265   0.04433  Uiso   1.00
F51    F     0.75000   0.25000   0.38735   0.04433  Uiso   1.00
F52    F     0.66425   0.16425   0.00000   0.04433  Uiso   1.00
F53    F     0.83575   0.33575   0.00000   0.04433  Uiso   1.00
F54    F     0.83575   0.16425   0.00000   0.04433  Uiso   1.00
F55    F     0.66425   0.33575   0.00000   0.04433  Uiso   1.00
Si56   Si    0.75000   0.25000   0.00000   0.03166  Uiso   1.00
N57    N     0.25000   0.60090   0.25000   0.05699  Uiso   1.00
N58    N     0.25000   0.89910   0.25000   0.05699  Uiso   1.00
N59    N     0.39910   0.75000   0.25000   0.05699  Uiso   1.00
N60    N     0.10090   0.75000   0.25000   0.05699  Uiso   1.00
C61    C     0.25000   0.54970   0.17420   0.05699  Uiso   1.00
H62    H     0.25000   0.58750   0.11200   0.08612  Uiso   1.00
C63    C     0.25000   0.95030   0.17420   0.05699  Uiso   1.00
H64    H     0.25000   0.91250   0.11200   0.08612  Uiso   1.00
C65    C     0.45030   0.75000   0.17420   0.05699  Uiso   1.00
H66    H     0.41250   0.75000   0.11200   0.08612  Uiso   1.00
C67    C     0.04970   0.75000   0.17420   0.05699  Uiso   1.00
H68    H     0.08750   0.75000   0.11200   0.08612  Uiso   1.00
C69    C     0.25000   0.54970   0.32580   0.05699  Uiso   1.00
H70    H     0.25000   0.58750   0.38800   0.08612  Uiso   1.00
C71    C     0.25000   0.95030   0.32580   0.05699  Uiso   1.00
H72    H     0.25000   0.91250   0.38800   0.08612  Uiso   1.00
C73    C     0.04970   0.75000   0.32580   0.05699  Uiso   1.00
H74    H     0.08750   0.75000   0.38800   0.08612  Uiso   1.00
C75    C     0.45030   0.75000   0.32580   0.05699  Uiso   1.00
H76    H     0.41250   0.75000   0.38800   0.08612  Uiso   1.00
Ni77   Ni    0.25000   0.75000   0.25000   0.03800  Uiso   1.00
F78    F     0.25000   0.75000   0.11265   0.04433  Uiso   1.00
F79    F     0.25000   0.75000   0.38735   0.04433  Uiso   1.00
F80    F     0.16425   0.66425   0.00000   0.04433  Uiso   1.00
F81    F     0.33575   0.83575   0.00000   0.04433  Uiso   1.00
F82    F     0.33575   0.66425   0.00000   0.04433  Uiso   1.00
F83    F     0.16425   0.83575   0.00000   0.04433  Uiso   1.00
Si84   Si    0.25000   0.75000   0.00000   0.03166  Uiso   1.00
N85    N     0.75000   0.60090   0.25000   0.05699  Uiso   1.00
N86    N     0.75000   0.89910   0.25000   0.05699  Uiso   1.00
N87    N     0.89910   0.75000   0.25000   0.05699  Uiso   1.00
N88    N     0.60090   0.75000   0.25000   0.05699  Uiso   1.00
C89    C     0.75000   0.54970   0.17420   0.05699  Uiso   1.00
H90    H     0.75000   0.58750   0.11200   0.08612  Uiso   1.00
C91    C     0.75000   0.95030   0.17420   0.05699  Uiso   1.00
H92    H     0.75000   0.91250   0.11200   0.08612  Uiso   1.00
C93    C     0.95030   0.75000   0.17420   0.05699  Uiso   1.00
H94    H     0.91250   0.75000   0.11200   0.08612  Uiso   1.00
C95    C     0.54970   0.75000   0.17420   0.05699  Uiso   1.00
H96    H     0.58750   0.75000   0.11200   0.08612  Uiso   1.00
C97    C     0.75000   0.54970   0.32580   0.05699  Uiso   1.00
H98    H     0.75000   0.58750   0.38800   0.08612  Uiso   1.00
C99    C     0.75000   0.95030   0.32580   0.05699  Uiso   1.00
H100   H     0.75000   0.91250   0.38800   0.08612  Uiso   1.00
C101   C     0.54970   0.75000   0.32580   0.05699  Uiso   1.00
H102   H     0.58750   0.75000   0.38800   0.08612  Uiso   1.00
C103   C     0.95030   0.75000   0.32580   0.05699  Uiso   1.00
H104   H     0.91250   0.75000   0.38800   0.08612  Uiso   1.00
Ni105  Ni    0.75000   0.75000   0.25000   0.03800  Uiso   1.00
F106   F     0.75000   0.75000   0.11265   0.04433  Uiso   1.00
F107   F     0.75000   0.75000   0.38735   0.04433  Uiso   1.00
F108   F     0.66425   0.66425   0.00000   0.04433  Uiso   1.00
F109   F     0.83575   0.83575   0.00000   0.04433  Uiso   1.00
F110   F     0.83575   0.66425   0.00000   0.04433  Uiso   1.00
F111   F     0.66425   0.83575   0.00000   0.04433  Uiso   1.00
Si112  Si    0.75000   0.75000   0.00000   0.03166  Uiso   1.00
N113   N     0.25000   0.10090   0.75000   0.05699  Uiso   1.00
N114   N     0.25000   0.39910   0.75000   0.05699  Uiso   1.00
N115   N     0.39910   0.25000   0.75000   0.05699  Uiso   1.00
N116   N     0.10090   0.25000   0.75000   0.05699  Uiso   1.00
C117   C     0.25000   0.04970   0.67420   0.05699  Uiso   1.00
H118   H     0.25000   0.08750   0.61200   0.08612  Uiso   1.00
C119   C     0.25000   0.45030   0.67420   0.05699  Uiso   1.00
H120   H     0.25000   0.41250   0.61200   0.08612  Uiso   1.00
C121   C     0.45030   0.25000   0.67420   0.05699  Uiso   1.00
H122   H     0.41250   0.25000   0.61200   0.08612  Uiso   1.00
C123   C     0.04970   0.25000   0.67420   0.05699  Uiso   1.00
H124   H     0.08750   0.25000   0.61200   0.08612  Uiso   1.00
C125   C     0.25000   0.04970   0.82580   0.05699  Uiso   1.00
H126   H     0.25000   0.08750   0.88800   0.08612  Uiso   1.00
C127   C     0.25000   0.45030   0.82580   0.05699  Uiso   1.00
H128   H     0.25000   0.41250   0.88800   0.08612  Uiso   1.00
C129   C     0.04970   0.25000   0.82580   0.05699  Uiso   1.00
H130   H     0.08750   0.25000   0.88800   0.08612  Uiso   1.00
C131   C     0.45030   0.25000   0.82580   0.05699  Uiso   1.00
H132   H     0.41250   0.25000   0.88800   0.08612  Uiso   1.00
Ni133  Ni    0.25000   0.25000   0.75000   0.03800  Uiso   1.00
F134   F     0.25000   0.25000   0.61265   0.04433  Uiso   1.00
F135   F     0.25000   0.25000   0.88735   0.04433  Uiso   1.00
F136   F     0.16425   0.16425   0.50000   0.04433  Uiso   1.00
F137   F     0.33575   0.33575   0.50000   0.04433  Uiso   1.00
F138   F     0.33575   0.16425   0.50000   0.04433  Uiso   1.00
F139   F     0.16425   0.33575   0.50000   0.04433  Uiso   1.00
Si140  Si    0.25000   0.25000   0.50000   0.03166  Uiso   1.00
N141   N     0.75000   0.10090   0.75000   0.05699  Uiso   1.00
N142   N     0.75000   0.39910   0.75000   0.05699  Uiso   1.00
N143   N     0.89910   0.25000   0.75000   0.05699  Uiso   1.00
N144   N     0.60090   0.25000   0.75000   0.05699  Uiso   1.00
C145   C     0.75000   0.04970   0.67420   0.05699  Uiso   1.00
H146   H     0.75000   0.08750   0.61200   0.08612  Uiso   1.00
C147   C     0.75000   0.45030   0.67420   0.05699  Uiso   1.00
H148   H     0.75000   0.41250   0.61200   0.08612  Uiso   1.00
C149   C     0.95030   0.25000   0.67420   0.05699  Uiso   1.00
H150   H     0.91250   0.25000   0.61200   0.08612  Uiso   1.00
C151   C     0.54970   0.25000   0.67420   0.05699  Uiso   1.00
H152   H     0.58750   0.25000   0.61200   0.08612  Uiso   1.00
C153   C     0.75000   0.04970   0.82580   0.05699  Uiso   1.00
H154   H     0.75000   0.08750   0.88800   0.08612  Uiso   1.00
C155   C     0.75000   0.45030   0.82580   0.05699  Uiso   1.00
H156   H     0.75000   0.41250   0.88800   0.08612  Uiso   1.00
C157   C     0.54970   0.25000   0.82580   0.05699  Uiso   1.00
H158   H     0.58750   0.25000   0.88800   0.08612  Uiso   1.00
C159   C     0.95030   0.25000   0.82580   0.05699  Uiso   1.00
H160   H     0.91250   0.25000   0.88800   0.08612  Uiso   1.00
Ni161  Ni    0.75000   0.25000   0.75000   0.03800  Uiso   1.00
F162   F     0.75000   0.25000   0.61265   0.04433  Uiso   1.00
F163   F     0.75000   0.25000   0.88735   0.04433  Uiso   1.00
F164   F     0.66425   0.16425   0.50000   0.04433  Uiso   1.00
F165   F     0.83575   0.33575   0.50000   0.04433  Uiso   1.00
F166   F     0.83575   0.16425   0.50000   0.04433  Uiso   1.00
F167   F     0.66425   0.33575   0.50000   0.04433  Uiso   1.00
Si168  Si    0.75000   0.25000   0.50000   0.03166  Uiso   1.00
N169   N     0.25000   0.60090   0.75000   0.05699  Uiso   1.00
N170   N     0.25000   0.89910   0.75000   0.05699  Uiso   1.00
N171   N     0.39910   0.75000   0.75000   0.05699  Uiso   1.00
N172   N     0.10090   0.75000   0.75000   0.05699  Uiso   1.00
C173   C     0.25000   0.54970   0.67420   0.05699  Uiso   1.00
H174   H     0.25000   0.58750   0.61200   0.08612  Uiso   1.00
C175   C     0.25000   0.95030   0.67420   0.05699  Uiso   1.00
H176   H     0.25000   0.91250   0.61200   0.08612  Uiso   1.00
C177   C     0.45030   0.75000   0.67420   0.05699  Uiso   1.00
H178   H     0.41250   0.75000   0.61200   0.08612  Uiso   1.00
C179   C     0.04970   0.75000   0.67420   0.05699  Uiso   1.00
H180   H     0.08750   0.75000   0.61200   0.08612  Uiso   1.00
C181   C     0.25000   0.54970   0.82580   0.05699  Uiso   1.00
H182   H     0.25000   0.58750   0.88800   0.08612  Uiso   1.00
C183   C     0.25000   0.95030   0.82580   0.05699  Uiso   1.00
H184   H     0.25000   0.91250   0.88800   0.08612  Uiso   1.00
C185   C     0.04970   0.75000   0.82580   0.05699  Uiso   1.00
H186   H     0.08750   0.75000   0.88800   0.08612  Uiso   1.00
C187   C     0.45030   0.75000   0.82580   0.05699  Uiso   1.00
H188   H     0.41250   0.75000   0.88800   0.08612  Uiso   1.00
Ni189  Ni    0.25000   0.75000   0.75000   0.03800  Uiso   1.00
F190   F     0.25000   0.75000   0.61265   0.04433  Uiso   1.00
F191   F     0.25000   0.75000   0.88735   0.04433  Uiso   1.00
F192   F     0.16425   0.66425   0.50000   0.04433  Uiso   1.00
F193   F     0.33575   0.83575   0.50000   0.04433  Uiso   1.00
F194   F     0.33575   0.66425   0.50000   0.04433  Uiso   1.00
F195   F     0.16425   0.83575   0.50000   0.04433  Uiso   1.00
Si196  Si    0.25000   0.75000   0.50000   0.03166  Uiso   1.00
N197   N     0.75000   0.60090   0.75000   0.05699  Uiso   1.00
N198   N     0.75000   0.89910   0.75000   0.05699  Uiso   1.00
N199   N     0.89910   0.75000   0.75000   0.05699  Uiso   1.00
N200   N     0.60090   0.75000   0.75000   0.05699  Uiso   1.00
C201   C     0.75000   0.54970   0.67420   0.05699  Uiso   1.00
H202   H     0.75000   0.58750   0.61200   0.08612  Uiso   1.00
C203   C     0.75000   0.95030   0.67420   0.05699  Uiso   1.00
H204   H     0.75000   0.91250   0.61200   0.08612  Uiso   1.00
C205   C     0.95030   0.75000   0.67420   0.05699  Uiso   1.00
H206   H     0.91250   0.75000   0.61200   0.08612  Uiso   1.00
C207   C     0.54970   0.75000   0.67420   0.05699  Uiso   1.00
H208   H     0.58750   0.75000   0.61200   0.08612  Uiso   1.00
C209   C     0.75000   0.54970   0.82580   0.05699  Uiso   1.00
H210   H     0.75000   0.58750   0.88800   0.08612  Uiso   1.00
C211   C     0.75000   0.95030   0.82580   0.05699  Uiso   1.00
H212   H     0.75000   0.91250   0.88800   0.08612  Uiso   1.00
C213   C     0.54970   0.75000   0.82580   0.05699  Uiso   1.00
H214   H     0.58750   0.75000   0.88800   0.08612  Uiso   1.00
C215   C     0.95030   0.75000   0.82580   0.05699  Uiso   1.00
H216   H     0.91250   0.75000   0.88800   0.08612  Uiso   1.00
Ni217  Ni    0.75000   0.75000   0.75000   0.03800  Uiso   1.00
F218   F     0.75000   0.75000   0.61265   0.04433  Uiso   1.00
F219   F     0.75000   0.75000   0.88735   0.04433  Uiso   1.00
F220   F     0.66425   0.66425   0.50000   0.04433  Uiso   1.00
F221   F     0.83575   0.83575   0.50000   0.04433  Uiso   1.00
F222   F     0.83575   0.66425   0.50000   0.04433  Uiso   1.00
F223   F     0.66425   0.83575   0.50000   0.04433  Uiso   1.00
Si224  Si    0.75000   0.75000   0.50000   0.03166  Uiso   1.00
loop_
_geom_bond_atom_site_label_1
_geom_bond_atom_site_label_2
_geom_bond_distance
_geom_bond_site_symmetry_2
_ccdc_geom_bond_type
N1     C5      1.357   .     S
N1     C13     1.357   .     S
N1     Ni21    2.096   .     S
N2     C7      1.357   .     S
N2     C15     1.357   .     S
N2     Ni21    2.096   .     S
N3     C9      1.357   .     S
N3     C19     1.357   .     S
N3     Ni21    2.096   .     S
N4     C11     1.357   .     S
N4     C17     1.357   .     S
N4     Ni21    2.096   .     S
C5     H6      1.083   .     S
C5     C63     1.397   1_545 S
C7     H8      1.083   .     S
C7     C61     1.397   .     S
C9     H10     1.083   .     S
C9     C39     1.397   .     S
C11    H12     1.083   .     S
C11    C37     1.397   1_455 S
C13    H14     1.083   .     S
C13    C71     1.397   1_545 S
C15    H16     1.083   .     S
C15    C69     1.397   .     S
C17    H18     1.083   .     S
C17    C47     1.397   1_455 S
C19    H20     1.083   .     S
C19    C45     1.397   .     S
Ni21   F22     2.085   .     S
Ni21   F23     2.085   .     S
F22    Si28    1.710   .     S
F23    Si140   1.710   .     S
F24    Si28    1.704   .     S
F25    Si28    1.704   .     S
F26    Si28    1.704   .     S
F27    Si28    1.704   .     S
Si28   F135    1.710   1_554 S
N29    C33     1.357   .     S
N29    C41     1.357   .     S
N29    Ni49    2.096   .     S
N30    C35     1.357   .     S
N30    C43     1.357   .     S
N30    Ni49    2.096   .     S
N31    C37     1.357   .     S
N31    C47     1.357   .     S
N31    Ni49    2.096   .     S
N32    C39     1.357   .     S
N32    C45     1.357   .     S
N32    Ni49    2.096   .     S
C33    H34     1.083   .     S
C33    C91     1.397   1_545 S
C35    H36     1.083   .     S
C35    C89     1.397   .     S
C37    H38     1.083   .     S
C37    C11     1.397   1_655 S
C39    H40     1.083   .     S
C41    H42     1.083   .     S
C41    C99     1.397   1_545 S
C43    H44     1.083   .     S
C43    C97     1.397   .     S
C45    H46     1.083   .     S
C47    H48     1.083   .     S
C47    C17     1.397   1_655 S
Ni49   F50     2.085   .     S
Ni49   F51     2.085   .     S
F50    Si56    1.710   .     S
F51    Si168   1.710   .     S
F52    Si56    1.704   .     S
F53    Si56    1.704   .     S
F54    Si56    1.704   .     S
F55    Si56    1.704   .     S
Si56   F163    1.710   1_554 S
N57    C61     1.357   .     S
N57    C69     1.357   .     S
N57    Ni77    2.096   .     S
N58    C63     1.357   .     S
N58    C71     1.357   .     S
N58    Ni77    2.096   .     S
N59    C65     1.357   .     S
N59    C75     1.357   .     S
N59    Ni77    2.096   .     S
N60    C67     1.357   .     S
N60    C73     1.357   .     S
N60    Ni77    2.096   .     S
C61    H62     1.083   .     S
C63    H64     1.083   .     S
C63    C5      1.397   1_565 S
C65    H66     1.083   .     S
C65    C95     1.397   .     S
C67    H68     1.083   .     S
C67    C93     1.397   1_455 S
C69    H70     1.083   .     S
C71    H72     1.083   .     S
C71    C13     1.397   1_565 S
C73    H74     1.083   .     S
C73    C103    1.397   1_455 S
C75    H76     1.083   .     S
C75    C101    1.397   .     S
Ni77   F78     2.085   .     S
Ni77   F79     2.085   .     S
F78    Si84    1.710   .     S
F79    Si196   1.710   .     S
F80    Si84    1.704   .     S
F81    Si84    1.704   .     S
F82    Si84    1.704   .     S
F83    Si84    1.704   .     S
Si84   F191    1.710   1_554 S
N85    C89     1.357   .     S
N85    C97     1.357   .     S
N85    Ni105   2.096   .     S
N86    C91     1.357   .     S
N86    C99     1.357   .     S
N86    Ni105   2.096   .     S
N87    C93     1.357   .     S
N87    C103    1.357   .     S
N87    Ni105   2.096   .     S
N88    C95     1.357   .     S
N88    C101    1.357   .     S
N88    Ni105   2.096   .     S
C89    H90     1.083   .     S
C91    H92     1.083   .     S
C91    C33     1.397   1_565 S
C93    H94     1.083   .     S
C93    C67     1.397   1_655 S
C95    H96     1.083   .     S
C97    H98     1.083   .     S
C99    H100    1.083   .     S
C99    C41     1.397   1_565 S
C101   H102    1.083   .     S
C103   H104    1.083   .     S
C103   C73     1.397   1_655 S
Ni105  F106    2.085   .     S
Ni105  F107    2.085   .     S
F106   Si112   1.710   .     S
F107   Si224   1.710   .     S
F108   Si112   1.704   .     S
F109   Si112   1.704   .     S
F110   Si112   1.704   .     S
F111   Si112   1.704   .     S
Si112  F219    1.710   1_554 S
N113   C117    1.357   .     S
N113   C125    1.357   .     S
N113   Ni133   2.096   .     S
N114   C119    1.357   .     S
N114   C127    1.357   .     S
N114   Ni133   2.096   .     S
N115   C121    1.357   .     S
N115   C131    1.357   .     S
N115   Ni133   2.096   .     S
N116   C123    1.357   .     S
N116   C129    1.357   .     S
N116   Ni133   2.096   .     S
C117   H118    1.083   .     S
C117   C175    1.397   1_545 S
C119   H120    1.083   .     S
C119   C173    1.397   .     S
C121   H122    1.083   .     S
C121   C151    1.397   .     S
C123   H124    1.083   .     S
C123   C149    1.397   1_455 S
C125   H126    1.083   .     S
C125   C183    1.397   1_545 S
C127   H128    1.083   .     S
C127   C181    1.397   .     S
C129   H130    1.083   .     S
C129   C159    1.397   1_455 S
C131   H132    1.083   .     S
C131   C157    1.397   .     S
Ni133  F134    2.085   .     S
Ni133  F135    2.085   .     S
F134   Si140   1.710   .     S
F135   Si28    1.710   1_556 S
F136   Si140   1.704   .     S
F137   Si140   1.704   .     S
F138   Si140   1.704   .     S
F139   Si140   1.704   .     S
N141   C145    1.357   .     S
N141   C153    1.357   .     S
N141   Ni161   2.096   .     S
N142   C147    1.357   .     S
N142   C155    1.357   .     S
N142   Ni161   2.096   .     S
N143   C149    1.357   .     S
N143   C159    1.357   .     S
N143   Ni161   2.096   .     S
N144   C151    1.357   .     S
N144   C157    1.357   .     S
N144   Ni161   2.096   .     S
C145   H146    1.083   .     S
C145   C203    1.397   1_545 S
C147   H148    1.083   .     S
C147   C201    1.397   .     S
C149   H150    1.083   .     S
C149   C123    1.397   1_655 S
C151   H152    1.083   .     S
C153   H154    1.083   .     S
C153   C211    1.397   1_545 S
C155   H156    1.083   .     S
C155   C209    1.397   .     S
C157   H158    1.083   .     S
C159   H160    1.083   .     S
C159   C129    1.397   1_655 S
Ni161  F162    2.085   .     S
Ni161  F163    2.085   .     S
F162   Si168   1.710   .     S
F163   Si56    1.710   1_556 S
F164   Si168   1.704   .     S
F165   Si168   1.704   .     S
F166   Si168   1.704   .     S
F167   Si168   1.704   .     S
N169   C173    1.357   .     S
N169   C181    1.357   .     S
N169   Ni189   2.096   .     S
N170   C175    1.357   .     S
N170   C183    1.357   .     S
N170   Ni189   2.096   .     S
N171   C177    1.357   .     S
N171   C187    1.357   .     S
N171   Ni189   2.096   .     S
N172   C179    1.357   .     S
N172   C185    1.357   .     S
N172   Ni189   2.096   .     S
C173   H174    1.083   .     S
C175   H176    1.083   .     S
C175   C117    1.397   1_565 S
C177   H178    1.083   .     S
C177   C207    1.397   .     S
C179   H180    1.083   .     S
C179   C205    1.397   1_455 S
C181   H182    1.083   .     S
C183   H184    1.083   .     S
C183   C125    1.397   1_565 S
C185   H186    1.083   .     S
C185   C215    1.397   1_455 S
C187   H188    1.083   .     S
C187   C213    1.397   .     S
Ni189  F190    2.085   .     S
Ni189  F191    2.085   .     S
F190   Si196   1.710   .     S
F191   Si84    1.710   1_556 S
F192   Si196   1.704   .     S
F193   Si196   1.704   .     S
F194   Si196   1.704   .     S
F195   Si196   1.704   .     S
N197   C201    1.357   .     S
N197   C209    1.357   .     S
N197   Ni217   2.096   .     S
N198   C203    1.357   .     S
N198   C211    1.357   .     S
N198   Ni217   2.096   .     S
N199   C205    1.357   .     S
N199   C215    1.357   .     S
N199   Ni217   2.096   .     S
N200   C207    1.357   .     S
N200   C213    1.357   .     S
N200   Ni217   2.096   .     S
C201   H202    1.083   .     S
C203   H204    1.083   .     S
C203   C145    1.397   1_565 S
C205   H206    1.083   .     S
C205   C179    1.397   1_655 S
C207   H208    1.083   .     S
C209   H210    1.083   .     S
C211   H212    1.083   .     S
C211   C153    1.397   1_565 S
C213   H214    1.083   .     S
C215   H216    1.083   .     S
C215   C185    1.397   1_655 S
Ni217  F218    2.085   .     S
Ni217  F219    2.085   .     S
F218   Si224   1.710   .     S
F219   Si112   1.710   1_556 S
F220   Si224   1.704   .     S
F221   Si224   1.704   .     S
F222   Si224   1.704   .     S
F223   Si224   1.704   .     S
